ieee33_VLN_elem.Txt

NODE-GROUND VOLTAGES BY CIRCUIT ELEMENT

Power Delivery Elements

Bus       (node ref)  Phase    Magnitude, kV (pu)    Angle

ELEMENT = "Vsource.SOURCE"
SOURCEBUS  (  1)    1           7.3091 (       1) /_    0.0
SOURCEBUS  (  2)    2           7.3091 (       1) /_ -120.0
SOURCEBUS  (  3)    3           7.3091 (       1) /_  120.0
------------
SOURCEBUS  (  0)    0                0 (       0) /_    0.0
SOURCEBUS  (  0)    0                0 (       0) /_    0.0
SOURCEBUS  (  0)    0                0 (       0) /_    0.0

ELEMENT = "Transformer.SUBXF"
SOURCEBUS  (  1)    1           7.3091 (       1) /_    0.0
SOURCEBUS  (  2)    2           7.3091 (       1) /_ -120.0
SOURCEBUS  (  3)    3           7.3091 (       1) /_  120.0
SOURCEBUS  (  0)    0                0 (       0) /_    0.0
------------
1          (  4)    1          0.80462 (  0.1101) /_  -30.0
1          (  5)    2          0.80462 (  0.1101) /_ -150.0
1          (  6)    3          0.80462 (  0.1101) /_   90.0
1          (  0)    0                0 (       0) /_    0.0

ELEMENT = "Line.L1_2"
1          (  4)    1          0.80462 (  0.1101) /_  -30.0
1          (  5)    2          0.80462 (  0.1101) /_ -150.0
1          (  6)    3          0.80462 (  0.1101) /_   90.0
------------
2          (  7)    1          0.80402 (    0.11) /_  -29.9
2          (  8)    2          0.80402 (    0.11) /_ -149.9
2          (  9)    3          0.80402 (    0.11) /_   90.1

ELEMENT = "Line.L2_3"
2          (  7)    1          0.80402 (    0.11) /_  -29.9
2          (  8)    2          0.80402 (    0.11) /_ -149.9
2          (  9)    3          0.80402 (    0.11) /_   90.1
------------
3          ( 10)    1          0.80226 (  0.1098) /_  -29.5
3          ( 11)    2          0.80226 (  0.1098) /_ -149.5
3          ( 12)    3          0.80226 (  0.1098) /_   90.5

ELEMENT = "Line.L3_4"
3          ( 10)    1          0.80226 (  0.1098) /_  -29.5
3          ( 11)    2          0.80226 (  0.1098) /_ -149.5
3          ( 12)    3          0.80226 (  0.1098) /_   90.5
------------
4          ( 13)    1           0.8033 (  0.1099) /_  -29.1
4          ( 14)    2           0.8033 (  0.1099) /_ -149.1
4          ( 15)    3           0.8033 (  0.1099) /_   90.9

ELEMENT = "Line.L4_5"
4          ( 13)    1           0.8033 (  0.1099) /_  -29.1
4          ( 14)    2           0.8033 (  0.1099) /_ -149.1
4          ( 15)    3           0.8033 (  0.1099) /_   90.9
------------
5          ( 16)    1          0.80471 (  0.1101) /_  -28.8
5          ( 17)    2          0.80471 (  0.1101) /_ -148.8
5          ( 18)    3          0.80471 (  0.1101) /_   91.2

ELEMENT = "Line.L5_6"
5          ( 16)    1          0.80471 (  0.1101) /_  -28.8
5          ( 17)    2          0.80471 (  0.1101) /_ -148.8
5          ( 18)    3          0.80471 (  0.1101) /_   91.2
------------
6          ( 19)    1          0.80568 (  0.1102) /_  -27.8
6          ( 20)    2          0.80568 (  0.1102) /_ -147.8
6          ( 21)    3          0.80568 (  0.1102) /_   92.2

ELEMENT = "Line.L6_7"
6          ( 19)    1          0.80568 (  0.1102) /_  -27.8
6          ( 20)    2          0.80568 (  0.1102) /_ -147.8
6          ( 21)    3          0.80568 (  0.1102) /_   92.2
------------
7          ( 22)    1          0.80445 (  0.1101) /_  -27.6
7          ( 23)    2          0.80445 (  0.1101) /_ -147.6
7          ( 24)    3          0.80445 (  0.1101) /_   92.4

ELEMENT = "Line.L7_8"
7          ( 22)    1          0.80445 (  0.1101) /_  -27.6
7          ( 23)    2          0.80445 (  0.1101) /_ -147.6
7          ( 24)    3          0.80445 (  0.1101) /_   92.4
------------
8          ( 25)    1          0.80761 (  0.1105) /_  -27.4
8          ( 26)    2          0.80761 (  0.1105) /_ -147.4
8          ( 27)    3          0.80761 (  0.1105) /_   92.6

ELEMENT = "Line.L8_9"
8          ( 25)    1          0.80761 (  0.1105) /_  -27.4
8          ( 26)    2          0.80761 (  0.1105) /_ -147.4
8          ( 27)    3          0.80761 (  0.1105) /_   92.6
------------
9          ( 28)    1          0.81252 (  0.1112) /_  -26.9
9          ( 29)    2          0.81252 (  0.1112) /_ -146.9
9          ( 30)    3          0.81252 (  0.1112) /_   93.1

ELEMENT = "Line.L9_10"
9          ( 28)    1          0.81252 (  0.1112) /_  -26.9
9          ( 29)    2          0.81252 (  0.1112) /_ -146.9
9          ( 30)    3          0.81252 (  0.1112) /_   93.1
------------
10         ( 31)    1          0.81798 (  0.1119) /_  -26.4
10         ( 32)    2          0.81798 (  0.1119) /_ -146.4
10         ( 33)    3          0.81798 (  0.1119) /_   93.6

ELEMENT = "Line.L10_11"
10         ( 31)    1          0.81798 (  0.1119) /_  -26.4
10         ( 32)    2          0.81798 (  0.1119) /_ -146.4
10         ( 33)    3          0.81798 (  0.1119) /_   93.6
------------
11         ( 34)    1          0.81923 (  0.1121) /_  -26.3
11         ( 35)    2          0.81923 (  0.1121) /_ -146.3
11         ( 36)    3          0.81923 (  0.1121) /_   93.7

ELEMENT = "Line.L11_12"
11         ( 34)    1          0.81923 (  0.1121) /_  -26.3
11         ( 35)    2          0.81923 (  0.1121) /_ -146.3
11         ( 36)    3          0.81923 (  0.1121) /_   93.7
------------
12         ( 37)    1          0.82173 (  0.1124) /_  -26.2
12         ( 38)    2          0.82173 (  0.1124) /_ -146.2
12         ( 39)    3          0.82173 (  0.1124) /_   93.8

ELEMENT = "Line.L12_13"
12         ( 37)    1          0.82173 (  0.1124) /_  -26.2
12         ( 38)    2          0.82173 (  0.1124) /_ -146.2
12         ( 39)    3          0.82173 (  0.1124) /_   93.8
------------
13         ( 40)    1          0.83106 (  0.1137) /_  -25.4
13         ( 41)    2          0.83106 (  0.1137) /_ -145.4
13         ( 42)    3          0.83106 (  0.1137) /_   94.6

ELEMENT = "Line.L13_14"
13         ( 40)    1          0.83106 (  0.1137) /_  -25.4
13         ( 41)    2          0.83106 (  0.1137) /_ -145.4
13         ( 42)    3          0.83106 (  0.1137) /_   94.6
------------
14         ( 43)    1          0.83443 (  0.1142) /_  -25.0
14         ( 44)    2          0.83443 (  0.1142) /_ -145.0
14         ( 45)    3          0.83443 (  0.1142) /_   95.0

ELEMENT = "Line.L14_15"
14         ( 43)    1          0.83443 (  0.1142) /_  -25.0
14         ( 44)    2          0.83443 (  0.1142) /_ -145.0
14         ( 45)    3          0.83443 (  0.1142) /_   95.0
------------
15         ( 46)    1          0.83904 (  0.1148) /_  -24.7
15         ( 47)    2          0.83904 (  0.1148) /_ -144.7
15         ( 48)    3          0.83904 (  0.1148) /_   95.3

ELEMENT = "Line.L15_16"
15         ( 46)    1          0.83904 (  0.1148) /_  -24.7
15         ( 47)    2          0.83904 (  0.1148) /_ -144.7
15         ( 48)    3          0.83904 (  0.1148) /_   95.3
------------
16         ( 49)    1          0.84526 (  0.1156) /_  -24.3
16         ( 50)    2          0.84526 (  0.1156) /_ -144.3
16         ( 51)    3          0.84526 (  0.1156) /_   95.7

ELEMENT = "Line.L16_17"
16         ( 49)    1          0.84526 (  0.1156) /_  -24.3
16         ( 50)    2          0.84526 (  0.1156) /_ -144.3
16         ( 51)    3          0.84526 (  0.1156) /_   95.7
------------
17         ( 52)    1          0.85626 (  0.1171) /_  -23.2
17         ( 53)    2          0.85626 (  0.1171) /_ -143.2
17         ( 54)    3          0.85626 (  0.1171) /_   96.8

ELEMENT = "Line.L17_18"
17         ( 52)    1          0.85626 (  0.1171) /_  -23.2
17         ( 53)    2          0.85626 (  0.1171) /_ -143.2
17         ( 54)    3          0.85626 (  0.1171) /_   96.8
------------
18         ( 55)    1          0.86307 (  0.1181) /_  -22.8
18         ( 56)    2          0.86307 (  0.1181) /_ -142.8
18         ( 57)    3          0.86307 (  0.1181) /_   97.2

ELEMENT = "Line.L2_19"
2          (  7)    1          0.80402 (    0.11) /_  -29.9
2          (  8)    2          0.80402 (    0.11) /_ -149.9
2          (  9)    3          0.80402 (    0.11) /_   90.1
------------
19         ( 58)    1           0.8036 (  0.1099) /_  -29.9
19         ( 59)    2           0.8036 (  0.1099) /_ -149.9
19         ( 60)    3           0.8036 (  0.1099) /_   90.1

ELEMENT = "Line.L19_20"
19         ( 58)    1           0.8036 (  0.1099) /_  -29.9
19         ( 59)    2           0.8036 (  0.1099) /_ -149.9
19         ( 60)    3           0.8036 (  0.1099) /_   90.1
------------
20         ( 61)    1          0.80076 (  0.1096) /_  -30.0
20         ( 62)    2          0.80076 (  0.1096) /_ -150.0
20         ( 63)    3          0.80076 (  0.1096) /_   90.0

ELEMENT = "Line.L20_21"
20         ( 61)    1          0.80076 (  0.1096) /_  -30.0
20         ( 62)    2          0.80076 (  0.1096) /_ -150.0
20         ( 63)    3          0.80076 (  0.1096) /_   90.0
------------
21         ( 64)    1           0.8002 (  0.1095) /_  -30.0
21         ( 65)    2           0.8002 (  0.1095) /_ -150.0
21         ( 66)    3           0.8002 (  0.1095) /_   90.0

ELEMENT = "Line.L21_22"
21         ( 64)    1           0.8002 (  0.1095) /_  -30.0
21         ( 65)    2           0.8002 (  0.1095) /_ -150.0
21         ( 66)    3           0.8002 (  0.1095) /_   90.0
------------
22         ( 67)    1           0.7997 (  0.1094) /_  -30.0
22         ( 68)    2           0.7997 (  0.1094) /_ -150.0
22         ( 69)    3           0.7997 (  0.1094) /_   90.0

ELEMENT = "Line.L3_23"
3          ( 10)    1          0.80226 (  0.1098) /_  -29.5
3          ( 11)    2          0.80226 (  0.1098) /_ -149.5
3          ( 12)    3          0.80226 (  0.1098) /_   90.5
------------
23         ( 70)    1           0.7995 (  0.1094) /_  -29.5
23         ( 71)    2           0.7995 (  0.1094) /_ -149.5
23         ( 72)    3           0.7995 (  0.1094) /_   90.5

ELEMENT = "Line.L23_24"
23         ( 70)    1           0.7995 (  0.1094) /_  -29.5
23         ( 71)    2           0.7995 (  0.1094) /_ -149.5
23         ( 72)    3           0.7995 (  0.1094) /_   90.5
------------
24         ( 73)    1          0.79436 (  0.1087) /_  -29.6
24         ( 74)    2          0.79436 (  0.1087) /_ -149.6
24         ( 75)    3          0.79436 (  0.1087) /_   90.4

ELEMENT = "Line.L24_25"
24         ( 73)    1          0.79436 (  0.1087) /_  -29.6
24         ( 74)    2          0.79436 (  0.1087) /_ -149.6
24         ( 75)    3          0.79436 (  0.1087) /_   90.4
------------
25         ( 76)    1          0.79181 (  0.1083) /_  -29.6
25         ( 77)    2          0.79181 (  0.1083) /_ -149.6
25         ( 78)    3          0.79181 (  0.1083) /_   90.4

ELEMENT = "Line.L6_26"
6          ( 19)    1          0.80568 (  0.1102) /_  -27.8
6          ( 20)    2          0.80568 (  0.1102) /_ -147.8
6          ( 21)    3          0.80568 (  0.1102) /_   92.2
------------
26         ( 79)    1          0.80609 (  0.1103) /_  -27.7
26         ( 80)    2          0.80609 (  0.1103) /_ -147.7
26         ( 81)    3          0.80609 (  0.1103) /_   92.3

ELEMENT = "Line.L26_27"
26         ( 79)    1          0.80609 (  0.1103) /_  -27.7
26         ( 80)    2          0.80609 (  0.1103) /_ -147.7
26         ( 81)    3          0.80609 (  0.1103) /_   92.3
------------
27         ( 82)    1          0.80679 (  0.1104) /_  -27.6
27         ( 83)    2          0.80679 (  0.1104) /_ -147.6
27         ( 84)    3          0.80679 (  0.1104) /_   92.4

ELEMENT = "Line.L27_28"
27         ( 82)    1          0.80679 (  0.1104) /_  -27.6
27         ( 83)    2          0.80679 (  0.1104) /_ -147.6
27         ( 84)    3          0.80679 (  0.1104) /_   92.4
------------
28         ( 85)    1           0.8079 (  0.1105) /_  -26.8
28         ( 86)    2           0.8079 (  0.1105) /_ -146.8
28         ( 87)    3           0.8079 (  0.1105) /_   93.2

ELEMENT = "Line.L28_29"
28         ( 85)    1           0.8079 (  0.1105) /_  -26.8
28         ( 86)    2           0.8079 (  0.1105) /_ -146.8
28         ( 87)    3           0.8079 (  0.1105) /_   93.2
------------
29         ( 88)    1          0.80919 (  0.1107) /_  -26.3
29         ( 89)    2          0.80919 (  0.1107) /_ -146.3
29         ( 90)    3          0.80919 (  0.1107) /_   93.7

ELEMENT = "Line.L29_30"
29         ( 88)    1          0.80919 (  0.1107) /_  -26.3
29         ( 89)    2          0.80919 (  0.1107) /_ -146.3
29         ( 90)    3          0.80919 (  0.1107) /_   93.7
------------
30         ( 91)    1          0.81129 (   0.111) /_  -26.0
30         ( 92)    2          0.81129 (   0.111) /_ -146.0
30         ( 93)    3          0.81129 (   0.111) /_   94.0

ELEMENT = "Line.L30_31"
30         ( 91)    1          0.81129 (   0.111) /_  -26.0
30         ( 92)    2          0.81129 (   0.111) /_ -146.0
30         ( 93)    3          0.81129 (   0.111) /_   94.0
------------
31         ( 94)    1           0.8173 (  0.1118) /_  -25.4
31         ( 95)    2           0.8173 (  0.1118) /_ -145.4
31         ( 96)    3           0.8173 (  0.1118) /_   94.6

ELEMENT = "Line.L31_32"
31         ( 94)    1           0.8173 (  0.1118) /_  -25.4
31         ( 95)    2           0.8173 (  0.1118) /_ -145.4
31         ( 96)    3           0.8173 (  0.1118) /_   94.6
------------
32         ( 97)    1          0.81953 (  0.1121) /_  -25.2
32         ( 98)    2          0.81953 (  0.1121) /_ -145.2
32         ( 99)    3          0.81953 (  0.1121) /_   94.8

ELEMENT = "Line.L32_33"
32         ( 97)    1          0.81953 (  0.1121) /_  -25.2
32         ( 98)    2          0.81953 (  0.1121) /_ -145.2
32         ( 99)    3          0.81953 (  0.1121) /_   94.8
------------
33         (100)    1          0.82255 (  0.1125) /_  -24.9
33         (101)    2          0.82255 (  0.1125) /_ -144.9
33         (102)    3          0.82255 (  0.1125) /_   95.1

= = = = = = = = = = = = = = = = = = =  = = = = = = = = = = =  = =

Power Conversion Elements

Bus       (node ref)  Phase    Magnitude, kV (pu)    Angle

ELEMENT = "Load.LOAD2"
2          (  7)    1          0.80402 (    0.11) /_  -29.9
2          (  8)    2          0.80402 (    0.11) /_ -149.9
2          (  9)    3          0.80402 (    0.11) /_   90.1
2          (  0)    0                0 (       0) /_    0.0

ELEMENT = "Load.LOAD3"
3          ( 10)    1          0.80226 (  0.1098) /_  -29.5
3          ( 11)    2          0.80226 (  0.1098) /_ -149.5
3          ( 12)    3          0.80226 (  0.1098) /_   90.5
3          (  0)    0                0 (       0) /_    0.0

ELEMENT = "Load.LOAD4"
4          ( 13)    1           0.8033 (  0.1099) /_  -29.1
4          ( 14)    2           0.8033 (  0.1099) /_ -149.1
4          ( 15)    3           0.8033 (  0.1099) /_   90.9
4          (  0)    0                0 (       0) /_    0.0

ELEMENT = "Load.LOAD5"
5          ( 16)    1          0.80471 (  0.1101) /_  -28.8
5          ( 17)    2          0.80471 (  0.1101) /_ -148.8
5          ( 18)    3          0.80471 (  0.1101) /_   91.2
5          (  0)    0                0 (       0) /_    0.0

ELEMENT = "Load.LOAD6"
6          ( 19)    1          0.80568 (  0.1102) /_  -27.8
6          ( 20)    2          0.80568 (  0.1102) /_ -147.8
6          ( 21)    3          0.80568 (  0.1102) /_   92.2
6          (  0)    0                0 (       0) /_    0.0

ELEMENT = "Load.LOAD7"
7          ( 22)    1          0.80445 (  0.1101) /_  -27.6
7          ( 23)    2          0.80445 (  0.1101) /_ -147.6
7          ( 24)    3          0.80445 (  0.1101) /_   92.4
7          (  0)    0                0 (       0) /_    0.0

ELEMENT = "Load.LOAD8"
8          ( 25)    1          0.80761 (  0.1105) /_  -27.4
8          ( 26)    2          0.80761 (  0.1105) /_ -147.4
8          ( 27)    3          0.80761 (  0.1105) /_   92.6
8          (  0)    0                0 (       0) /_    0.0

ELEMENT = "Load.LOAD9"
9          ( 28)    1          0.81252 (  0.1112) /_  -26.9
9          ( 29)    2          0.81252 (  0.1112) /_ -146.9
9          ( 30)    3          0.81252 (  0.1112) /_   93.1
9          (  0)    0                0 (       0) /_    0.0

ELEMENT = "Load.LOAD10"
10         ( 31)    1          0.81798 (  0.1119) /_  -26.4
10         ( 32)    2          0.81798 (  0.1119) /_ -146.4
10         ( 33)    3          0.81798 (  0.1119) /_   93.6
10         (  0)    0                0 (       0) /_    0.0

ELEMENT = "Load.LOAD11"
11         ( 34)    1          0.81923 (  0.1121) /_  -26.3
11         ( 35)    2          0.81923 (  0.1121) /_ -146.3
11         ( 36)    3          0.81923 (  0.1121) /_   93.7
11         (  0)    0                0 (       0) /_    0.0

ELEMENT = "Load.LOAD12"
12         ( 37)    1          0.82173 (  0.1124) /_  -26.2
12         ( 38)    2          0.82173 (  0.1124) /_ -146.2
12         ( 39)    3          0.82173 (  0.1124) /_   93.8
12         (  0)    0                0 (       0) /_    0.0

ELEMENT = "Load.LOAD13"
13         ( 40)    1          0.83106 (  0.1137) /_  -25.4
13         ( 41)    2          0.83106 (  0.1137) /_ -145.4
13         ( 42)    3          0.83106 (  0.1137) /_   94.6
13         (  0)    0                0 (       0) /_    0.0

ELEMENT = "Load.LOAD14"
14         ( 43)    1          0.83443 (  0.1142) /_  -25.0
14         ( 44)    2          0.83443 (  0.1142) /_ -145.0
14         ( 45)    3          0.83443 (  0.1142) /_   95.0
14         (  0)    0                0 (       0) /_    0.0

ELEMENT = "Load.LOAD15"
15         ( 46)    1          0.83904 (  0.1148) /_  -24.7
15         ( 47)    2          0.83904 (  0.1148) /_ -144.7
15         ( 48)    3          0.83904 (  0.1148) /_   95.3
15         (  0)    0                0 (       0) /_    0.0

ELEMENT = "Load.LOAD16"
16         ( 49)    1          0.84526 (  0.1156) /_  -24.3
16         ( 50)    2          0.84526 (  0.1156) /_ -144.3
16         ( 51)    3          0.84526 (  0.1156) /_   95.7
16         (  0)    0                0 (       0) /_    0.0

ELEMENT = "Load.LOAD17"
17         ( 52)    1          0.85626 (  0.1171) /_  -23.2
17         ( 53)    2          0.85626 (  0.1171) /_ -143.2
17         ( 54)    3          0.85626 (  0.1171) /_   96.8
17         (  0)    0                0 (       0) /_    0.0

ELEMENT = "Load.LOAD18"
18         ( 55)    1          0.86307 (  0.1181) /_  -22.8
18         ( 56)    2          0.86307 (  0.1181) /_ -142.8
18         ( 57)    3          0.86307 (  0.1181) /_   97.2
18         (  0)    0                0 (       0) /_    0.0

ELEMENT = "Load.LOAD19"
19         ( 58)    1           0.8036 (  0.1099) /_  -29.9
19         ( 59)    2           0.8036 (  0.1099) /_ -149.9
19         ( 60)    3           0.8036 (  0.1099) /_   90.1
19         (  0)    0                0 (       0) /_    0.0

ELEMENT = "Load.LOAD20"
20         ( 61)    1          0.80076 (  0.1096) /_  -30.0
20         ( 62)    2          0.80076 (  0.1096) /_ -150.0
20         ( 63)    3          0.80076 (  0.1096) /_   90.0
20         (  0)    0                0 (       0) /_    0.0

ELEMENT = "Load.LOAD21"
21         ( 64)    1           0.8002 (  0.1095) /_  -30.0
21         ( 65)    2           0.8002 (  0.1095) /_ -150.0
21         ( 66)    3           0.8002 (  0.1095) /_   90.0
21         (  0)    0                0 (       0) /_    0.0

ELEMENT = "Load.LOAD22"
22         ( 67)    1           0.7997 (  0.1094) /_  -30.0
22         ( 68)    2           0.7997 (  0.1094) /_ -150.0
22         ( 69)    3           0.7997 (  0.1094) /_   90.0
22         (  0)    0                0 (       0) /_    0.0

ELEMENT = "Load.LOAD23"
23         ( 70)    1           0.7995 (  0.1094) /_  -29.5
23         ( 71)    2           0.7995 (  0.1094) /_ -149.5
23         ( 72)    3           0.7995 (  0.1094) /_   90.5
23         (  0)    0                0 (       0) /_    0.0

ELEMENT = "Load.LOAD24"
24         ( 73)    1          0.79436 (  0.1087) /_  -29.6
24         ( 74)    2          0.79436 (  0.1087) /_ -149.6
24         ( 75)    3          0.79436 (  0.1087) /_   90.4
24         (  0)    0                0 (       0) /_    0.0

ELEMENT = "Load.LOAD25"
25         ( 76)    1          0.79181 (  0.1083) /_  -29.6
25         ( 77)    2          0.79181 (  0.1083) /_ -149.6
25         ( 78)    3          0.79181 (  0.1083) /_   90.4
25         (  0)    0                0 (       0) /_    0.0

ELEMENT = "Load.LOAD26"
26         ( 79)    1          0.80609 (  0.1103) /_  -27.7
26         ( 80)    2          0.80609 (  0.1103) /_ -147.7
26         ( 81)    3          0.80609 (  0.1103) /_   92.3
26         (  0)    0                0 (       0) /_    0.0

ELEMENT = "Load.LOAD27"
27         ( 82)    1          0.80679 (  0.1104) /_  -27.6
27         ( 83)    2          0.80679 (  0.1104) /_ -147.6
27         ( 84)    3          0.80679 (  0.1104) /_   92.4
27         (  0)    0                0 (       0) /_    0.0

ELEMENT = "Load.LOAD28"
28         ( 85)    1           0.8079 (  0.1105) /_  -26.8
28         ( 86)    2           0.8079 (  0.1105) /_ -146.8
28         ( 87)    3           0.8079 (  0.1105) /_   93.2
28         (  0)    0                0 (       0) /_    0.0

ELEMENT = "Load.LOAD29"
29         ( 88)    1          0.80919 (  0.1107) /_  -26.3
29         ( 89)    2          0.80919 (  0.1107) /_ -146.3
29         ( 90)    3          0.80919 (  0.1107) /_   93.7
29         (  0)    0                0 (       0) /_    0.0

ELEMENT = "Load.LOAD30"
30         ( 91)    1          0.81129 (   0.111) /_  -26.0
30         ( 92)    2          0.81129 (   0.111) /_ -146.0
30         ( 93)    3          0.81129 (   0.111) /_   94.0
30         (  0)    0                0 (       0) /_    0.0

ELEMENT = "Load.LOAD31"
31         ( 94)    1           0.8173 (  0.1118) /_  -25.4
31         ( 95)    2           0.8173 (  0.1118) /_ -145.4
31         ( 96)    3           0.8173 (  0.1118) /_   94.6
31         (  0)    0                0 (       0) /_    0.0

ELEMENT = "Load.LOAD32"
32         ( 97)    1          0.81953 (  0.1121) /_  -25.2
32         ( 98)    2          0.81953 (  0.1121) /_ -145.2
32         ( 99)    3          0.81953 (  0.1121) /_   94.8
32         (  0)    0                0 (       0) /_    0.0

ELEMENT = "Load.LOAD33"
33         (100)    1          0.82255 (  0.1125) /_  -24.9
33         (101)    2          0.82255 (  0.1125) /_ -144.9
33         (102)    3          0.82255 (  0.1125) /_   95.1
33         (  0)    0                0 (       0) /_    0.0

ELEMENT = "Generator.DG18"
18         ( 55)    1          0.86307 (  0.1181) /_  -22.8
18         ( 56)    2          0.86307 (  0.1181) /_ -142.8
18         ( 57)    3          0.86307 (  0.1181) /_   97.2
18         (  0)    0                0 (       0) /_    0.0

ELEMENT = "Generator.DG33"
33         (100)    1          0.82255 (  0.1125) /_  -24.9
33         (101)    2          0.82255 (  0.1125) /_ -144.9
33         (102)    3          0.82255 (  0.1125) /_   95.1
33         (  0)    0                0 (       0) /_    0.0

